<configuration>
    <input>
        <net-file value="map.net.xml"/>
        <route-files value="sumo.rou.xml"/>
        <additional-files value="sumo.add.xml"/>
    </input>
</configuration>